! This file was written by the model and records all non-layout or debugging parameters used at run-time.

! === module MOM ===
